data_image0
_cell_length_a       21.85
_cell_length_b       21.7405
_cell_length_c       13.0978
_cell_angle_alpha    90.0327
_cell_angle_beta     90.0286
_cell_angle_gamma    60.1735

_symmetry_space_group_name_H-M    "P 1"
_symmetry_int_tables_number       1

loop_
  _symmetry_equiv_pos_as_xyz
  'x, y, z'

loop_
  _atom_site_label
  _atom_site_occupancy
  _atom_site_fract_x
  _atom_site_fract_y
  _atom_site_fract_z
  _atom_site_thermal_displace_type
  _atom_site_B_iso_or_equiv
  _atom_site_type_symbol
  O1       1.0000 0.49286  0.51460  0.49575  Biso   1.000  O 
  O2       1.0000 0.43518  0.45789  0.42059  Biso   1.000  O 
  O3       1.0000 0.62514  0.48563  0.60247  Biso   1.000  O 
  O4       1.0000 0.62738  0.51315  0.33161  Biso   1.000  O 
  O5       1.0000 0.37462  0.64741  0.45510  Biso   1.000  O 
  O6       1.0000 0.26227  0.63189  0.54566  Biso   1.000  O 
  O7       1.0000 0.31339  0.49458  0.63622  Biso   1.000  O 
  O8       1.0000 0.52181  0.62783  0.53907  Biso   1.000  O 
  O9       1.0000 0.65135  0.57617  0.63348  Biso   1.000  O 
  O10      1.0000 0.73391  0.34881  0.57117  Biso   1.000  O 
  O11      1.0000 0.47979  0.32078  0.47490  Biso   1.000  O 
  C1       1.0000 0.56126  0.48258  0.44967  Biso   1.000  C 
  C2       1.0000 0.57031  0.54210  0.40228  Biso   1.000  C 
  C3       1.0000 0.44062  0.52069  0.42473  Biso   1.000  C 
  C4       1.0000 0.61655  0.44001  0.53203  Biso   1.000  C 
  C5       1.0000 0.36833  0.58561  0.44499  Biso   1.000  C 
  C6       1.0000 0.33418  0.57634  0.54110  Biso   1.000  C 
  C7       1.0000 0.33542  0.50536  0.53867  Biso   1.000  C 
  C8       1.0000 0.58499  0.58387  0.48331  Biso   1.000  C 
  C9       1.0000 0.40942  0.44414  0.51336  Biso   1.000  C 
  C10      1.0000 0.64299  0.53422  0.55695  Biso   1.000  C 
  C11      1.0000 0.68752  0.38385  0.48877  Biso   1.000  C 
  C12      1.0000 0.41011  0.37415  0.49870  Biso   1.000  C 
  H1       1.0000 0.56529  0.44484  0.39058  Biso   1.000  H 
  H2       1.0000 0.52272  0.57878  0.35987  Biso   1.000  H 
  H3       1.0000 0.45569  0.52808  0.34776  Biso   1.000  H 
  H4       1.0000 0.59614  0.41241  0.57904  Biso   1.000  H 
  H5       1.0000 0.33337  0.59424  0.37985  Biso   1.000  H 
  H6       1.0000 0.36008  0.58123  0.60992  Biso   1.000  H 
  H7       1.0000 0.29733  0.50765  0.48195  Biso   1.000  H 
  H8       1.0000 0.44652  0.43669  0.57510  Biso   1.000  H 
  H9       1.0000 0.60075  0.61937  0.44726  Biso   1.000  H 
  H10      1.0000 0.69347  0.50520  0.51680  Biso   1.000  H 
  H11      1.0000 0.71241  0.40643  0.44113  Biso   1.000  H 
  H12      1.0000 0.68200  0.34471  0.44307  Biso   1.000  H 
  H13      1.0000 0.37597  0.37721  0.43536  Biso   1.000  H 
  H14      1.0000 0.39332  0.35847  0.56785  Biso   1.000  H 
  H15      1.0000 0.63019  0.55240  0.30098  Biso   1.000  H 
  H16      1.0000 0.40793  0.63897  0.50992  Biso   1.000  H 
  H17      1.0000 0.24365  0.62919  0.61185  Biso   1.000  H 
  H18      1.0000 0.26383  0.52970  0.64439  Biso   1.000  H 
  H19      1.0000 0.53328  0.65231  0.59126  Biso   1.000  H 
  H20      1.0000 0.69912  0.54856  0.65979  Biso   1.000  H 
  H21      1.0000 0.71338  0.32630  0.61201  Biso   1.000  H 
  H22      1.0000 0.49416  0.33560  0.41369  Biso   1.000  H 
  C13      1.0000 0.03678  0.33904  0.37584  Biso   1.000  C 
  C14      1.0000 0.04014  0.27328  0.37576  Biso   1.000  C 
  C15      1.0000 0.10471  0.20973  0.37558  Biso   1.000  C 
  C16      1.0000 0.16969  0.21205  0.37531  Biso   1.000  C 
  C17      1.0000 0.16635  0.27788  0.37525  Biso   1.000  C 
  C18      1.0000 0.10165  0.34128  0.37560  Biso   1.000  C 
  C19      1.0000 0.10675  0.14198  0.37567  Biso   1.000  C 
  C20      1.0000 0.23728  0.14627  0.37519  Biso   1.000  C 
  C21      1.0000 0.23874  0.07890  0.37560  Biso   1.000  C 
  C22      1.0000 0.17352  0.07655  0.37576  Biso   1.000  C 
  C23      1.0000 0.30385  0.01614  0.37583  Biso   1.000  C 
  C24      1.0000 0.36719  0.01702  0.37568  Biso   1.000  C 
  C25      1.0000 0.36613  0.08393  0.37522  Biso   1.000  C 
  C26      1.0000 0.30089  0.14691  0.37494  Biso   1.000  C 
  C27      1.0000 0.04445  0.13887  0.37564  Biso   1.000  C 
  C28      1.0000 0.04521  0.07436  0.37579  Biso   1.000  C 
  C29      1.0000 0.11154  0.00886  0.37590  Biso   1.000  C 
  C30      1.0000 0.17403  0.01173  0.37586  Biso   1.000  C 
  C31      1.0000 0.04567  0.42372  0.12662  Biso   1.000  C 
  C32      1.0000 0.04489  0.35996  0.12658  Biso   1.000  C 
  C33      1.0000 0.10705  0.29456  0.12596  Biso   1.000  C 
  C34      1.0000 0.17388  0.29314  0.12579  Biso   1.000  C 
  C35      1.0000 0.17446  0.35744  0.12608  Biso   1.000  C 
  C36      1.0000 0.11204  0.42285  0.12636  Biso   1.000  C 
  C37      1.0000 0.10491  0.22888  0.12579  Biso   1.000  C 
  C38      1.0000 0.23897  0.22556  0.12551  Biso   1.000  C 
  C39      1.0000 0.23746  0.15974  0.12574  Biso   1.000  C 
  C40      1.0000 0.16984  0.16155  0.12580  Biso   1.000  C 
  C41      1.0000 0.30101  0.09546  0.12605  Biso   1.000  C 
  C42      1.0000 0.36627  0.09313  0.12605  Biso   1.000  C 
  C43      1.0000 0.36744  0.15893  0.12553  Biso   1.000  C 
  C44      1.0000 0.30416  0.22314  0.12524  Biso   1.000  C 
  C45      1.0000 0.04029  0.23001  0.12593  Biso   1.000  C 
  C46      1.0000 0.03683  0.16766  0.12621  Biso   1.000  C 
  C47      1.0000 0.10164  0.10053  0.12631  Biso   1.000  C 
  C48      1.0000 0.16641  0.09916  0.12604  Biso   1.000  C 
  H23      1.0000 0.30133  0.19675  0.37460  Biso   1.000  H 
  H24      1.0000 0.21421  0.28160  0.37492  Biso   1.000  H 
  H25      1.0000 0.30710  0.27172  0.12506  Biso   1.000  H 
  H26      1.0000 0.30136  0.04524  0.12648  Biso   1.000  H 
  H27      1.0000 0.22415  0.35782  0.12628  Biso   1.000  H 
  H28      1.0000 0.21422  0.04752  0.12628  Biso   1.000  H 
  O12      1.0000 0.43139  0.07520  0.37520  Biso   1.000  O 
  O13      1.0000 0.08996  0.40792  0.37545  Biso   1.000  O 
  O14      1.0000 0.08995  0.04561  0.12679  Biso   1.000  O 
  O15      1.0000 0.43151  0.03654  0.12656  Biso   1.000  O 
  O16      1.0000 0.43356  0.14848  0.12551  Biso   1.000  O 
  C49      1.0000 0.03678  0.33904  0.87584  Biso   1.000  C 
  C50      1.0000 0.04014  0.27328  0.87576  Biso   1.000  C 
  C51      1.0000 0.10471  0.20973  0.87558  Biso   1.000  C 
  C52      1.0000 0.16969  0.21205  0.87531  Biso   1.000  C 
  C53      1.0000 0.16635  0.27788  0.87525  Biso   1.000  C 
  C54      1.0000 0.10165  0.34128  0.87560  Biso   1.000  C 
  C55      1.0000 0.10675  0.14198  0.87567  Biso   1.000  C 
  C56      1.0000 0.23728  0.14627  0.87519  Biso   1.000  C 
  C57      1.0000 0.23874  0.07890  0.87560  Biso   1.000  C 
  C58      1.0000 0.17352  0.07655  0.87576  Biso   1.000  C 
  C59      1.0000 0.30385  0.01614  0.87583  Biso   1.000  C 
  C60      1.0000 0.36719  0.01702  0.87568  Biso   1.000  C 
  C61      1.0000 0.36613  0.08393  0.87522  Biso   1.000  C 
  C62      1.0000 0.30089  0.14691  0.87494  Biso   1.000  C 
  C63      1.0000 0.04445  0.13887  0.87564  Biso   1.000  C 
  C64      1.0000 0.04521  0.07436  0.87579  Biso   1.000  C 
  C65      1.0000 0.11154  0.00886  0.87590  Biso   1.000  C 
  C66      1.0000 0.17403  0.01173  0.87586  Biso   1.000  C 
  C67      1.0000 0.04567  0.42372  0.62662  Biso   1.000  C 
  C68      1.0000 0.04489  0.35996  0.62658  Biso   1.000  C 
  C69      1.0000 0.10705  0.29456  0.62596  Biso   1.000  C 
  C70      1.0000 0.17388  0.29314  0.62579  Biso   1.000  C 
  C71      1.0000 0.17446  0.35744  0.62608  Biso   1.000  C 
  C72      1.0000 0.11204  0.42285  0.62636  Biso   1.000  C 
  C73      1.0000 0.10491  0.22888  0.62579  Biso   1.000  C 
  C74      1.0000 0.23897  0.22556  0.62551  Biso   1.000  C 
  C75      1.0000 0.23746  0.15974  0.62574  Biso   1.000  C 
  C76      1.0000 0.16984  0.16155  0.62580  Biso   1.000  C 
  C77      1.0000 0.30101  0.09546  0.62605  Biso   1.000  C 
  C78      1.0000 0.36627  0.09313  0.62605  Biso   1.000  C 
  C79      1.0000 0.36744  0.15893  0.62553  Biso   1.000  C 
  C80      1.0000 0.30416  0.22314  0.62524  Biso   1.000  C 
  C81      1.0000 0.04029  0.23001  0.62593  Biso   1.000  C 
  C82      1.0000 0.03683  0.16766  0.62621  Biso   1.000  C 
  C83      1.0000 0.10164  0.10053  0.62631  Biso   1.000  C 
  C84      1.0000 0.16641  0.09916  0.62604  Biso   1.000  C 
  H29      1.0000 0.30133  0.19675  0.87460  Biso   1.000  H 
  H30      1.0000 0.21421  0.28160  0.87492  Biso   1.000  H 
  H31      1.0000 0.30710  0.27172  0.62506  Biso   1.000  H 
  H32      1.0000 0.30136  0.04524  0.62648  Biso   1.000  H 
  H33      1.0000 0.22415  0.35782  0.62628  Biso   1.000  H 
  H34      1.0000 0.21422  0.04752  0.62628  Biso   1.000  H 
  O17      1.0000 0.43139  0.07520  0.87520  Biso   1.000  O 
  O18      1.0000 0.08996  0.40792  0.87545  Biso   1.000  O 
  O19      1.0000 0.08995  0.04561  0.62679  Biso   1.000  O 
  O20      1.0000 0.43151  0.03654  0.62656  Biso   1.000  O 
  O21      1.0000 0.43356  0.14848  0.62551  Biso   1.000  O 
  H35      1.0000 0.30671  0.96466  0.37641  Biso   1.000  H 
  H36      1.0000 0.22364  0.96162  0.37582  Biso   1.000  H 
  H37      1.0000 0.01448  0.67631  0.37598  Biso   1.000  H 
  H38      1.0000 0.01719  0.75940  0.37601  Biso   1.000  H 
  H39      1.0000 0.01739  0.76680  0.12617  Biso   1.000  H 
  H40      1.0000 0.01461  0.85259  0.12722  Biso   1.000  H 
  O22      1.0000 0.10251  0.95180  0.37595  Biso   1.000  O 
  O23      1.0000 0.43325  0.96139  0.37603  Biso   1.000  O 
  O24      1.0000 0.02830  0.87995  0.37618  Biso   1.000  O 
  O25      1.0000 0.01784  0.54965  0.37598  Biso   1.000  O 
  O26      1.0000 0.10307  0.48891  0.12664  Biso   1.000  O 
  O27      1.0000 0.01797  0.97591  0.12703  Biso   1.000  O 
  O28      1.0000 0.02881  0.63507  0.12675  Biso   1.000  O 
  Ni1      1.0000 0.01008  0.97188  0.37595  Biso   1.000  Ni
  Ni2      1.0000 0.50389  0.98319  0.37589  Biso   1.000  Ni
  Ni3      1.0000 0.01066  0.56124  0.12688  Biso   1.000  Ni
  H41      1.0000 0.30671  0.96466  0.87641  Biso   1.000  H 
  H42      1.0000 0.22364  0.96162  0.87582  Biso   1.000  H 
  H43      1.0000 0.01448  0.67631  0.87598  Biso   1.000  H 
  H44      1.0000 0.01719  0.75940  0.87601  Biso   1.000  H 
  H45      1.0000 0.01739  0.76680  0.62617  Biso   1.000  H 
  H46      1.0000 0.01461  0.85259  0.62722  Biso   1.000  H 
  O29      1.0000 0.10251  0.95180  0.87595  Biso   1.000  O 
  O30      1.0000 0.43325  0.96139  0.87603  Biso   1.000  O 
  O31      1.0000 0.02830  0.87995  0.87618  Biso   1.000  O 
  O32      1.0000 0.01784  0.54965  0.87598  Biso   1.000  O 
  O33      1.0000 0.10307  0.48891  0.62664  Biso   1.000  O 
  O34      1.0000 0.01797  0.97591  0.62703  Biso   1.000  O 
  O35      1.0000 0.02881  0.63507  0.62675  Biso   1.000  O 
  Ni4      1.0000 0.01008  0.97188  0.87595  Biso   1.000  Ni
  Ni5      1.0000 0.50389  0.98319  0.87589  Biso   1.000  Ni
  Ni6      1.0000 0.01066  0.56124  0.62688  Biso   1.000  Ni
  C85      1.0000 0.64075  0.02226  0.12583  Biso   1.000  C 
  C86      1.0000 0.70408  0.02315  0.12554  Biso   1.000  C 
  C87      1.0000 0.83379  0.02776  0.12624  Biso   1.000  C 
  C88      1.0000 0.89623  0.03070  0.12646  Biso   1.000  C 
  H47      1.0000 0.99056  0.27280  0.37581  Biso   1.000  H 
  H48      1.0000 0.99320  0.18701  0.37536  Biso   1.000  H 
  H49      1.0000 0.99360  0.36314  0.12708  Biso   1.000  H 
  H50      1.0000 0.99076  0.28012  0.12588  Biso   1.000  H 
  H51      1.0000 0.70114  0.07466  0.12522  Biso   1.000  H 
  H52      1.0000 0.78413  0.07784  0.12646  Biso   1.000  H 
  O36      1.0000 0.98979  0.06370  0.37579  Biso   1.000  O 
  O37      1.0000 0.97936  0.40441  0.37599  Biso   1.000  O 
  O38      1.0000 0.57641  0.00268  0.37557  Biso   1.000  O 
  O39      1.0000 0.97937  0.15976  0.12657  Biso   1.000  O 
  O40      1.0000 0.90519  0.08781  0.12667  Biso   1.000  O 
  O41      1.0000 0.57469  0.07792  0.12567  Biso   1.000  O 
  Ni7      1.0000 0.99754  0.47813  0.37583  Biso   1.000  Ni
  Ni8      1.0000 0.50409  0.05602  0.12618  Biso   1.000  Ni
  Ni9      1.0000 0.99757  0.06777  0.12679  Biso   1.000  Ni
  C89      1.0000 0.64075  0.02226  0.62583  Biso   1.000  C 
  C90      1.0000 0.70408  0.02315  0.62554  Biso   1.000  C 
  C91      1.0000 0.83379  0.02776  0.62624  Biso   1.000  C 
  C92      1.0000 0.89623  0.03070  0.62646  Biso   1.000  C 
  H53      1.0000 0.99056  0.27280  0.87581  Biso   1.000  H 
  H54      1.0000 0.99320  0.18701  0.87536  Biso   1.000  H 
  H55      1.0000 0.99360  0.36314  0.62708  Biso   1.000  H 
  H56      1.0000 0.99076  0.28012  0.62588  Biso   1.000  H 
  H57      1.0000 0.70114  0.07466  0.62522  Biso   1.000  H 
  H58      1.0000 0.78413  0.07784  0.62646  Biso   1.000  H 
  O42      1.0000 0.98979  0.06370  0.87579  Biso   1.000  O 
  O43      1.0000 0.97936  0.40441  0.87599  Biso   1.000  O 
  O44      1.0000 0.57641  0.00268  0.87557  Biso   1.000  O 
  O45      1.0000 0.97937  0.15976  0.62657  Biso   1.000  O 
  O46      1.0000 0.90519  0.08781  0.62667  Biso   1.000  O 
  O47      1.0000 0.57469  0.07792  0.62567  Biso   1.000  O 
  Ni10     1.0000 0.99754  0.47813  0.87583  Biso   1.000  Ni
  Ni11     1.0000 0.50409  0.05602  0.62618  Biso   1.000  Ni
  Ni12     1.0000 0.99757  0.06777  0.62679  Biso   1.000  Ni
  C93      1.0000 0.64165  0.94608  0.37588  Biso   1.000  C 
  C94      1.0000 0.70689  0.94378  0.37565  Biso   1.000  C 
  C95      1.0000 0.77046  0.87952  0.37562  Biso   1.000  C 
  C96      1.0000 0.76900  0.81366  0.37600  Biso   1.000  C 
  C97      1.0000 0.70383  0.81604  0.37646  Biso   1.000  C 
  C98      1.0000 0.64054  0.88027  0.37641  Biso   1.000  C 
  C99      1.0000 0.83804  0.87778  0.37543  Biso   1.000  C 
  C100     1.0000 0.83416  0.74613  0.37590  Biso   1.000  C 
  C101     1.0000 0.90096  0.74479  0.37588  Biso   1.000  C 
  C102     1.0000 0.90304  0.81050  0.37574  Biso   1.000  C 
  C103     1.0000 0.96321  0.67943  0.37598  Biso   1.000  C 
  C104     1.0000 0.96244  0.61567  0.37598  Biso   1.000  C 
  C105     1.0000 0.89608  0.61649  0.37588  Biso   1.000  C 
  C106     1.0000 0.83361  0.68183  0.37579  Biso   1.000  C 
  C107     1.0000 0.84136  0.94025  0.37527  Biso   1.000  C 
  C108     1.0000 0.90607  0.93898  0.37571  Biso   1.000  C 
  C109     1.0000 0.97093  0.87190  0.37600  Biso   1.000  C 
  C110     1.0000 0.96761  0.80947  0.37594  Biso   1.000  C 
  C111     1.0000 0.76921  0.96043  0.12585  Biso   1.000  C 
  C112     1.0000 0.77070  0.89303  0.12616  Biso   1.000  C 
  C113     1.0000 0.70714  0.89233  0.12653  Biso   1.000  C 
  C114     1.0000 0.64188  0.95530  0.12641  Biso   1.000  C 
  C115     1.0000 0.83434  0.96288  0.12602  Biso   1.000  C 
  C116     1.0000 0.83832  0.82726  0.12617  Biso   1.000  C 
  C117     1.0000 0.90323  0.82972  0.12609  Biso   1.000  C 
  C118     1.0000 0.90111  0.89751  0.12618  Biso   1.000  C 
  C119     1.0000 0.96785  0.76622  0.12620  Biso   1.000  C 
  C120     1.0000 0.97132  0.70041  0.12644  Biso   1.000  C 
  C121     1.0000 0.90651  0.69805  0.12649  Biso   1.000  C 
  C122     1.0000 0.84176  0.76139  0.12630  Biso   1.000  C 
  C123     1.0000 0.96258  0.96521  0.12668  Biso   1.000  C 
  C124     1.0000 0.96335  0.90070  0.12673  Biso   1.000  C 
  H59      1.0000 0.78397  0.68137  0.37548  Biso   1.000  H 
  H60      1.0000 0.70091  0.76744  0.37693  Biso   1.000  H 
  H61      1.0000 0.70649  0.99404  0.37546  Biso   1.000  H 
  H62      1.0000 0.79348  0.99182  0.37492  Biso   1.000  H 
  H63      1.0000 0.79394  0.75758  0.12644  Biso   1.000  H 
  H64      1.0000 0.70675  0.84247  0.12698  Biso   1.000  H 
  O48      1.0000 0.91770  0.99396  0.37570  Biso   1.000  O 
  O49      1.0000 0.90512  0.55043  0.37582  Biso   1.000  O 
  O50      1.0000 0.57442  0.89075  0.37668  Biso   1.000  O 
  O51      1.0000 0.99028  0.48973  0.12707  Biso   1.000  O 
  O52      1.0000 0.91826  0.63139  0.12685  Biso   1.000  O 
  O53      1.0000 0.57665  0.96396  0.12676  Biso   1.000  O 
  C125     1.0000 0.64165  0.94608  0.87588  Biso   1.000  C 
  C126     1.0000 0.70689  0.94378  0.87565  Biso   1.000  C 
  C127     1.0000 0.77046  0.87952  0.87562  Biso   1.000  C 
  C128     1.0000 0.76900  0.81366  0.87600  Biso   1.000  C 
  C129     1.0000 0.70383  0.81604  0.87646  Biso   1.000  C 
  C130     1.0000 0.64054  0.88027  0.87641  Biso   1.000  C 
  C131     1.0000 0.83804  0.87778  0.87543  Biso   1.000  C 
  C132     1.0000 0.83416  0.74613  0.87590  Biso   1.000  C 
  C133     1.0000 0.90096  0.74479  0.87588  Biso   1.000  C 
  C134     1.0000 0.90304  0.81050  0.87574  Biso   1.000  C 
  C135     1.0000 0.96321  0.67943  0.87598  Biso   1.000  C 
  C136     1.0000 0.96244  0.61567  0.87598  Biso   1.000  C 
  C137     1.0000 0.89608  0.61649  0.87588  Biso   1.000  C 
  C138     1.0000 0.83361  0.68183  0.87579  Biso   1.000  C 
  C139     1.0000 0.84136  0.94025  0.87527  Biso   1.000  C 
  C140     1.0000 0.90607  0.93898  0.87571  Biso   1.000  C 
  C141     1.0000 0.97093  0.87190  0.87600  Biso   1.000  C 
  C142     1.0000 0.96761  0.80947  0.87594  Biso   1.000  C 
  C143     1.0000 0.76921  0.96043  0.62585  Biso   1.000  C 
  C144     1.0000 0.77070  0.89303  0.62616  Biso   1.000  C 
  C145     1.0000 0.70714  0.89233  0.62653  Biso   1.000  C 
  C146     1.0000 0.64188  0.95530  0.62641  Biso   1.000  C 
  C147     1.0000 0.83434  0.96288  0.62602  Biso   1.000  C 
  C148     1.0000 0.83832  0.82726  0.62617  Biso   1.000  C 
  C149     1.0000 0.90323  0.82972  0.62609  Biso   1.000  C 
  C150     1.0000 0.90111  0.89751  0.62618  Biso   1.000  C 
  C151     1.0000 0.96785  0.76622  0.62620  Biso   1.000  C 
  C152     1.0000 0.97132  0.70041  0.62644  Biso   1.000  C 
  C153     1.0000 0.90651  0.69805  0.62649  Biso   1.000  C 
  C154     1.0000 0.84176  0.76139  0.62630  Biso   1.000  C 
  C155     1.0000 0.96258  0.96521  0.62668  Biso   1.000  C 
  C156     1.0000 0.96335  0.90070  0.62673  Biso   1.000  C 
  H65      1.0000 0.78397  0.68137  0.87548  Biso   1.000  H 
  H66      1.0000 0.70091  0.76744  0.87693  Biso   1.000  H 
  H67      1.0000 0.70649  0.99404  0.87546  Biso   1.000  H 
  H68      1.0000 0.79348  0.99182  0.87492  Biso   1.000  H 
  H69      1.0000 0.79394  0.75758  0.62644  Biso   1.000  H 
  H70      1.0000 0.70675  0.84247  0.62698  Biso   1.000  H 
  O54      1.0000 0.91770  0.99396  0.87570  Biso   1.000  O 
  O55      1.0000 0.90512  0.55043  0.87582  Biso   1.000  O 
  O56      1.0000 0.57442  0.89075  0.87668  Biso   1.000  O 
  O57      1.0000 0.99028  0.48973  0.62707  Biso   1.000  O 
  O58      1.0000 0.91826  0.63139  0.62685  Biso   1.000  O 
  O59      1.0000 0.57665  0.96396  0.62676  Biso   1.000  O 
